# Name file for MODFLOW-2005, generated by Flopy version 3.3.0.
#xll:0.0; yll:0.0; rotation:0.0; units:meters; lenuni:2; start_datetime:1-1-1970
LIST               2  p03_mf.list
DIS               11  p03_mf.dis
BAS6              13  p03_mf.bas
LPF               15  p03_mf.lpf
WEL               20  p03_mf.wel
PCG               27  p03_mf.pcg
LMT6              30  p03_mf.lmt6
