# Name file for MT3DMS, generated by Flopy version 3.3.2.
LIST              16  binary_files_mt.list
FTL               10  mt3d_link.ftl 
BTN               31  binary_files_mt.btn
ADV               32  binary_files_mt.adv
DSP               33  binary_files_mt.dsp
RCT               36  binary_files_mt.rct
SSM               34  binary_files_mt.ssm
GCG               35  binary_files_mt.gcg
