# LPF package for  MODFLOW-2005, generated by Flopy.
         0    -1E+30         0  
         0
         0
   1.000000E+00
         0
         0
INTERNAL               1  (81E15.6) -1 #hk layer 1                    
   3.394394E+01   3.506946E+01   3.611853E+01   3.704980E+01   3.782860E+01   3.842847E+01   3.883216E+01   3.903204E+01   3.902992E+01   3.883659E+01   3.847095E+01   3.795904E+01   3.733289E+01   3.662937E+01   3.588898E+01   3.515451E+01   3.446968E+01   3.387753E+01   3.341864E+01   3.312919E+01   3.303882E+01   3.316847E+01   3.352836E+01   3.411621E+01   3.491610E+01   3.589797E+01   3.701809E+01   3.822056E+01   3.943990E+01   4.060461E+01   4.164151E+01   4.248064E+01   4.306029E+01   4.333176E+01   4.326335E+01   4.284334E+01   4.208144E+01   4.100869E+01   3.967553E+01   3.814845E+01   3.650510E+01   3.482861E+01   3.320128E+01   3.169847E+01   3.038312E+01   2.930131E+01   2.847947E+01   2.792332E+01   2.761866E+01   2.753394E+01   2.762435E+01   2.783690E+01   2.811613E+01   2.840973E+01   2.867360E+01   2.887588E+01   2.899944E+01   2.904280E+01   2.901928E+01   2.895460E+01   2.888322E+01   2.884379E+01   2.887421E+01   2.900695E+01   2.926494E+01   2.965854E+01   3.018392E+01   3.082290E+01   3.154424E+01   3.230632E+01   3.306079E+01   3.375682E+01   3.434558E+01   3.478446E+01   3.504063E+01   3.509367E+01   3.493711E+01   3.457867E+01   3.403946E+01   3.335212E+01   3.255824E+01
   3.192967E+01   3.276410E+01   3.351035E+01   3.414620E+01   3.465533E+01   3.502752E+01   3.525841E+01   3.534908E+01   3.530540E+01   3.513741E+01   3.485888E+01   3.448692E+01   3.404187E+01   3.354723E+01   3.302972E+01   3.251912E+01   3.204792E+01   3.165055E+01   3.136217E+01   3.121685E+01   3.124541E+01   3.147280E+01   3.191542E+01   3.257860E+01   3.345448E+01   3.452063E+01   3.573975E+01   3.706044E+01   3.841937E+01   3.974458E+01   4.095984E+01   4.198979E+01   4.276533E+01   4.322898E+01   4.333952E+01   4.307562E+01   4.243799E+01   4.144981E+01   4.015540E+01   3.861713E+01   3.691085E+01   3.512027E+01   3.333065E+01   3.162256E+01   3.006616E+01   2.871647E+01   2.761026E+01   2.676451E+01   2.617685E+01   2.582763E+01   2.568356E+01   2.570234E+01   2.583786E+01   2.604544E+01   2.628652E+01   2.653226E+01   2.676595E+01   2.698376E+01   2.719390E+01   2.741450E+01   2.767020E+01   2.798820E+01   2.839395E+01   2.890717E+01   2.953858E+01   3.028765E+01   3.114174E+01   3.207650E+01   3.305761E+01   3.404370E+01   3.498987E+01   3.585169E+01   3.658911E+01   3.716988E+01   3.757221E+01   3.778645E+01   3.781551E+01   3.767429E+01   3.738810E+01   3.699024E+01   3.651929E+01
   3.151351E+01   3.205016E+01   3.246437E+01   3.275153E+01   3.291387E+01   3.295932E+01   3.289988E+01   3.275005E+01   3.252529E+01   3.224092E+01   3.191146E+01   3.155047E+01   3.117103E+01   3.078642E+01   3.041124E+01   3.006232E+01   2.975950E+01   2.952584E+01   2.938721E+01   2.937114E+01   2.950484E+01   2.981272E+01   3.031348E+01   3.101705E+01   3.192191E+01   3.301300E+01   3.426060E+01   3.562040E+01   3.703502E+01   3.843678E+01   3.975175E+01   4.090471E+01   4.182450E+01   4.244965E+01   4.273320E+01   4.264682E+01   4.218341E+01   4.135801E+01   4.020696E+01   3.878531E+01   3.716264E+01   3.541776E+01   3.363273E+01   3.188679E+01   3.025069E+01   2.878207E+01   2.752222E+01   2.649441E+01   2.570410E+01   2.514076E+01   2.478102E+01   2.459296E+01   2.454080E+01   2.458958E+01   2.470939E+01   2.487852E+01   2.508536E+01   2.532887E+01   2.561755E+01   2.596726E+01   2.639793E+01   2.692984E+01   2.757983E+01   2.835784E+01   2.926431E+01   3.028871E+01   3.140935E+01   3.259445E+01   3.380448E+01   3.499540E+01   3.612238E+01   3.714379E+01   3.802477E+01   3.874022E+01   3.927681E+01   3.963375E+01   3.982252E+01   3.986532E+01   3.979277E+01   3.964088E+01   3.944788E+01
   3.339083E+01   3.369029E+01   3.382562E+01   3.380359E+01   3.363979E+01   3.335626E+01   3.297895E+01   3.253498E+01   3.205034E+01   3.154800E+01   3.104687E+01   3.056154E+01   3.010283E+01   2.967893E+01   2.929710E+01   2.896538E+01   2.869414E+01   2.849719E+01   2.839210E+01   2.839966E+01   2.854245E+01   2.884254E+01   2.931865E+01   2.998301E+01   3.083829E+01   3.187513E+01   3.307042E+01   3.438688E+01   3.577394E+01   3.717005E+01   3.850623E+01   3.971067E+01   4.071402E+01   4.145467E+01   4.188382E+01   4.196955E+01   4.169967E+01   4.108293E+01   4.014847E+01   3.894359E+01   3.752994E+01   3.597857E+01   3.436435E+01   3.276014E+01   3.123155E+01   2.983245E+01   2.860195E+01   2.756292E+01   2.672216E+01   2.607221E+01   2.559443E+01   2.526297E+01   2.504929E+01   2.492641E+01   2.487272E+01   2.487472E+01   2.492844E+01   2.503953E+01   2.522187E+01   2.549505E+01   2.588100E+01   2.640019E+01   2.706791E+01   2.789104E+01   2.886582E+01   2.997670E+01   3.119667E+01   3.248882E+01   3.380912E+01   3.511004E+01   3.634460E+01   3.747049E+01   3.845372E+01   3.927146E+01   3.991376E+01   4.038406E+01   4.069831E+01   4.088300E+01   4.097230E+01   4.100455E+01   4.101865E+01
   3.717130E+01   3.730676E+01   3.724805E+01   3.700555E+01   3.660007E+01   3.606011E+01   3.541871E+01   3.471022E+01   3.396736E+01   3.321894E+01   3.248833E+01   3.179303E+01   3.114505E+01   3.055219E+01   3.001988E+01   2.955322E+01   2.915893E+01   2.884691E+01   2.863095E+01   2.852862E+01   2.856018E+01   2.874650E+01   2.910633E+01   2.965322E+01   3.039239E+01   3.131799E+01   3.241127E+01   3.363975E+01   3.495788E+01   3.630894E+01   3.762836E+01   3.884803E+01   3.990133E+01   4.072824E+01   4.128033E+01   4.152469E+01   4.144683E+01   4.105193E+01   4.036430E+01   3.942539E+01   3.829007E+01   3.702197E+01   3.568803E+01   3.435312E+01   3.307487E+01   3.189966E+01   3.085978E+01   2.997226E+01   2.923929E+01   2.865020E+01   2.818471E+01   2.781699E+01   2.752010E+01   2.727026E+01   2.705049E+01   2.685306E+01   2.668078E+01   2.654665E+01   2.647222E+01   2.648469E+01   2.661327E+01   2.688506E+01   2.732114E+01   2.793314E+01   2.872091E+01   2.967142E+01   3.075899E+01   3.194711E+01   3.319126E+01   3.444275E+01   3.565300E+01   3.677785E+01   3.778138E+01   3.863895E+01   3.933904E+01   3.988380E+01   4.028822E+01   4.057813E+01   4.078720E+01   4.095334E+01   4.111489E+01
   4.153578E+01   4.154575E+01   4.135820E+01   4.098075E+01   4.043175E+01   3.973783E+01   3.893079E+01   3.804443E+01   3.711161E+01   3.616188E+01   3.521988E+01   3.430476E+01   3.343051E+01   3.260708E+01   3.184217E+01   3.114315E+01   3.051905E+01   2.998199E+01   2.954794E+01   2.923661E+01   2.907030E+01   2.907190E+01   2.926213E+01   2.965646E+01   3.026198E+01   3.107469E+01   3.207759E+01   3.323990E+01   3.451767E+01   3.585563E+01   3.719051E+01   3.845527E+01   3.958407E+01   4.051737E+01   4.120671E+01   4.161874E+01   4.173786E+01   4.156747E+01   4.112941E+01   4.046180E+01   3.961539E+01   3.864885E+01   3.762342E+01   3.659753E+01   3.562187E+01   3.473543E+01   3.396294E+01   3.331392E+01   3.278333E+01   3.235382E+01   3.199927E+01   3.168903E+01   3.139267E+01   3.108440E+01   3.074680E+01   3.037343E+01   2.997011E+01   2.955452E+01   2.915445E+01   2.880475E+01   2.854342E+01   2.840720E+01   2.842729E+01   2.862559E+01   2.901197E+01   2.958270E+01   3.032047E+01   3.119569E+01   3.216925E+01   3.319603E+01   3.422919E+01   3.522446E+01   3.614413E+01   3.696028E+01   3.765694E+01   3.823103E+01   3.869193E+01   3.905986E+01   3.936332E+01   3.963574E+01   3.991193E+01
   4.494016E+01   4.481183E+01   4.451434E+01   4.404943E+01   4.342819E+01   4.266917E+01   4.179596E+01   4.083458E+01   3.981105E+01   3.874950E+01   3.767089E+01   3.659257E+01   3.552871E+01   3.449137E+01   3.349202E+01   3.254330E+01   3.166052E+01   3.086283E+01   3.017348E+01   2.961934E+01   2.922936E+01   2.903232E+01   2.905379E+01   2.931291E+01   2.981922E+01   3.056993E+01   3.154813E+01   3.272216E+01   3.404636E+01   3.546319E+01   3.690671E+01   3.830703E+01   3.959540E+01   4.070951E+01   4.159831E+01   4.222603E+01   4.257490E+01   4.264628E+01   4.246005E+01   4.205235E+01   4.147181E+01   4.077474E+01   4.001972E+01   3.926207E+01   3.854889E+01   3.791511E+01   3.738091E+01   3.695076E+01   3.661425E+01   3.634839E+01   3.612132E+01   3.589677E+01   3.563899E+01   3.531744E+01   3.491084E+01   3.441001E+01   3.381940E+01   3.315699E+01   3.245271E+01   3.174547E+01   3.107932E+01   3.049895E+01   3.004526E+01   2.975123E+01   2.963879E+01   2.971679E+01   2.998036E+01   3.041173E+01   3.098220E+01   3.165530E+01   3.239052E+01   3.314732E+01   3.388898E+01   3.458588E+01   3.521788E+01   3.577568E+01   3.626093E+01   3.668528E+01   3.706850E+01   3.743583E+01   3.781504E+01
   4.646119E+01   4.614951E+01   4.572209E+01   4.517519E+01   4.451146E+01   4.373885E+01   4.286900E+01   4.191563E+01   4.089304E+01   3.981492E+01   3.869388E+01   3.754146E+01   3.636889E+01   3.518822E+01   3.401377E+01   3.286355E+01   3.176037E+01   3.073235E+01   2.981263E+01   2.903820E+01   2.844776E+01   2.807891E+01   2.796469E+01   2.812999E+01   2.858823E+01   2.933854E+01   3.036407E+01   3.163146E+01   3.309188E+01   3.468342E+01   3.633486E+01   3.797049E+01   3.951546E+01   4.090134E+01   4.207117E+01   4.298368E+01   4.361609E+01   4.396539E+01   4.404770E+01   4.389612E+01   4.355688E+01   4.308455E+01   4.253649E+01   4.196731E+01   4.142379E+01   4.094076E+01   4.053838E+01   4.022107E+01   3.997807E+01   3.978569E+01   3.961079E+01   3.941522E+01   3.916071E+01   3.881362E+01   3.834909E+01   3.775416E+01   3.702959E+01   3.619012E+01   3.526331E+01   3.428699E+01   3.330579E+01   3.236695E+01   3.151601E+01   3.079283E+01   3.022822E+01   2.984165E+01   2.964013E+01   2.961838E+01   2.976015E+01   3.004056E+01   3.042915E+01   3.089319E+01   3.140106E+01   3.192517E+01   3.244435E+01   3.294524E+01   3.342290E+01   3.388044E+01   3.432787E+01   3.478034E+01   3.525605E+01
   4.627710E+01   4.574551E+01   4.516126E+01   4.451784E+01   4.381137E+01   4.304016E+01   4.220402E+01   4.130358E+01   4.033978E+01   3.931372E+01   3.822704E+01   3.708258E+01   3.588573E+01   3.464577E+01   3.337740E+01   3.210192E+01   3.084804E+01   2.965179E+01   2.855566E+01   2.760673E+01   2.685388E+01   2.634433E+01   2.611972E+01   2.621209E+01   2.664022E+01   2.740678E+01   2.849650E+01   2.987577E+01   3.149378E+01   3.328514E+01   3.517390E+01   3.707854E+01   3.891763E+01   4.061551E+01   4.210771E+01   4.334523E+01   4.429767E+01   4.495459E+01   4.532523E+01   4.543648E+01   4.532931E+01   4.505416E+01   4.466560E+01   4.421690E+01   4.375503E+01   4.331650E+01   4.292453E+01   4.258771E+01   4.230030E+01   4.204398E+01   4.179096E+01   4.150788E+01   4.116031E+01   4.071706E+01   4.015419E+01   3.945794E+01   3.862664E+01   3.767125E+01   3.661457E+01   3.548927E+01   3.433498E+01   3.319483E+01   3.211172E+01   3.112484E+01   3.026667E+01   2.956086E+01   2.902101E+01   2.865051E+01   2.844338E+01   2.838590E+01   2.845878E+01   2.863967E+01   2.890570E+01   2.923574E+01   2.961218E+01   3.002213E+01   3.045803E+01   3.091747E+01   3.140266E+01   3.191934E+01   3.247558E+01
   4.549627E+01   4.475470E+01   4.401491E+01   4.327089E+01   4.251569E+01   4.174142E+01   4.093913E+01   4.009896E+01   3.921042E+01   3.826315E+01   3.724807E+01   3.615883E+01   3.499361E+01   3.375690E+01   3.246115E+01   3.112797E+01   2.978864E+01   2.848377E+01   2.726196E+01   2.617742E+01   2.528673E+01   2.464488E+01   2.430097E+01   2.429385E+01   2.464828E+01   2.537183E+01   2.645306E+01   2.786106E+01   2.954654E+01   3.144449E+01   3.347817E+01   3.556408E+01   3.761758E+01   3.955862E+01   4.131703E+01   4.283694E+01   4.407998E+01   4.502686E+01   4.567738E+01   4.604875E+01   4.617254E+01   4.609056E+01   4.585013E+01   4.549908E+01   4.508129E+01   4.463274E+01   4.417894E+01   4.373343E+01   4.329787E+01   4.286330E+01   4.241259E+01   4.192360E+01   4.137272E+01   4.073852E+01   4.000477E+01   3.916295E+01   3.821369E+01   3.716715E+01   3.604242E+01   3.486592E+01   3.366918E+01   3.248617E+01   3.135052E+01   3.029299E+01   2.933933E+01   2.850890E+01   2.781388E+01   2.725941E+01   2.684425E+01   2.656203E+01   2.640282E+01   2.635481E+01   2.640582E+01   2.654462E+01   2.676184E+01   2.705038E+01   2.740551E+01   2.782452E+01   2.830615E+01   2.884996E+01   2.945570E+01
   4.545249E+01   4.457087E+01   4.372189E+01   4.290250E+01   4.210625E+01   4.132333E+01   4.054078E+01   3.974298E+01   3.891253E+01   3.803151E+01   3.708320E+01   3.605409E+01   3.493604E+01   3.372843E+01   3.243996E+01   3.108990E+01   2.970863E+01   2.833709E+01   2.702527E+01   2.582970E+01   2.480994E+01   2.402453E+01   2.352651E+01   2.335909E+01   2.355168E+01   2.411686E+01   2.504850E+01   2.632121E+01   2.789141E+01   2.969969E+01   3.167457E+01   3.373713E+01   3.580623E+01   3.780375E+01   3.965959E+01   4.131568E+01   4.272905E+01   4.387337E+01   4.473910E+01   4.533225E+01   4.567189E+01   4.578680E+01   4.571160E+01   4.548272E+01   4.513476E+01   4.469748E+01   4.419363E+01   4.363800E+01   4.303740E+01   4.239174E+01   4.169582E+01   4.094168E+01   4.012108E+01   3.922789E+01   3.825999E+01   3.722061E+01   3.611886E+01   3.496948E+01   3.379188E+01   3.260863E+01   3.144364E+01   3.032021E+01   2.925927E+01   2.827804E+01   2.738909E+01   2.660010E+01   2.591420E+01   2.533073E+01   2.484646E+01   2.445686E+01   2.415744E+01   2.394476E+01   2.381717E+01   2.377503E+01   2.382047E+01   2.395677E+01   2.418745E+01   2.451520E+01   2.494084E+01   2.546256E+01   2.607547E+01
   4.691217E+01   4.600045E+01   4.512170E+01   4.427705E+01   4.346326E+01   4.267260E+01   4.189294E+01   4.110839E+01   4.030021E+01   3.944830E+01   3.853316E+01   3.753803E+01   3.645132E+01   3.526882E+01   3.399565E+01   3.264756E+01   3.125148E+01   2.984503E+01   2.847505E+01   2.719515E+01   2.606239E+01   2.513335E+01   2.445995E+01   2.408536E+01   2.404037E+01   2.434051E+01   2.498443E+01   2.595337E+01   2.721210E+01   2.871108E+01   3.038974E+01   3.218050E+01   3.401324E+01   3.581978E+01   3.753798E+01   3.911506E+01   4.050999E+01   4.169470E+01   4.265400E+01   4.338461E+01   4.389305E+01   4.419319E+01   4.430326E+01   4.424313E+01   4.403186E+01   4.368592E+01   4.321815E+01   4.263758E+01   4.195000E+01   4.115910E+01   4.026806E+01   3.928120E+01   3.820548E+01   3.705164E+01   3.583472E+01   3.457396E+01   3.329199E+01   3.201348E+01   3.076341E+01   2.956510E+01   2.843841E+01   2.739826E+01   2.645363E+01   2.560728E+01   2.485620E+01   2.419271E+01   2.360611E+01   2.308464E+01   2.261755E+01   2.219700E+01   2.181950E+01   2.148671E+01   2.120558E+01   2.098766E+01   2.084779E+01   2.080224E+01   2.086654E+01   2.105339E+01   2.137070E+01   2.182022E+01   2.239684E+01
   4.967538E+01   4.883765E+01   4.800540E+01   4.718438E+01   4.637633E+01   4.557862E+01   4.478406E+01   4.398121E+01   4.315522E+01   4.228911E+01   4.136561E+01   4.036924E+01   3.928860E+01   3.811859E+01   3.686228E+01   3.553220E+01   3.415089E+01   3.275053E+01   3.137164E+01   3.006086E+01   2.886798E+01   2.784254E+01   2.703006E+01   2.646862E+01   2.618576E+01   2.619617E+01   2.650041E+01   2.708476E+01   2.792212E+01   2.897408E+01   3.019368E+01   3.152880E+01   3.292579E+01   3.433279E+01   3.570284E+01   3.699600E+01   3.818074E+01   3.923435E+01   4.014235E+01   4.089728E+01   4.149681E+01   4.194179E+01   4.223421E+01   4.237563E+01   4.236607E+01   4.220369E+01   4.188515E+01   4.140667E+01   4.076548E+01   3.996169E+01   3.899995E+01   3.789094E+01   3.665218E+01   3.530818E+01   3.388968E+01   3.243215E+01   3.097351E+01   2.955147E+01   2.820064E+01   2.694981E+01   2.581972E+01   2.482154E+01   2.395639E+01   2.321578E+01   2.258314E+01   2.203624E+01   2.155011E+01   2.110034E+01   2.066626E+01   2.023364E+01   1.979669E+01   1.935896E+01   1.893324E+01   1.854025E+01   1.820647E+01   1.796112E+01   1.783285E+01   1.784642E+01   1.801971E+01   1.836143E+01   1.886989E+01
   5.278239E+01   5.206536E+01   5.130949E+01   5.052549E+01   4.972148E+01   4.890205E+01   4.806779E+01   4.721510E+01   4.633669E+01   4.542249E+01   4.446117E+01   4.344194E+01   4.235663E+01   4.120170E+01   3.997992E+01   3.870162E+01   3.738521E+01   3.605689E+01   3.474951E+01   3.350066E+01   3.235017E+01   3.133712E+01   3.049690E+01   2.985834E+01   2.944140E+01   2.925562E+01   2.929936E+01   2.956021E+01   3.001612E+01   3.063747E+01   3.138962E+01   3.223576E+01   3.313969E+01   3.406824E+01   3.499309E+01   3.589176E+01   3.674776E+01   3.754993E+01   3.829102E+01   3.896587E+01   3.956938E+01   4.009469E+01   4.053171E+01   4.086641E+01   4.108089E+01   4.115440E+01   4.106505E+01   4.079224E+01   4.031936E+01   3.963648E+01   3.874270E+01   3.764779E+01   3.637284E+01   3.494984E+01   3.342008E+01   3.183148E+01   3.023515E+01   2.868140E+01   2.721575E+01   2.587522E+01   2.468546E+01   2.365885E+01   2.279407E+01   2.207689E+01   2.148239E+01   2.097826E+01   2.052880E+01   2.009930E+01   1.966024E+01   1.919090E+01   1.868192E+01   1.813668E+01   1.757110E+01   1.701212E+01   1.649491E+01   1.605911E+01   1.574456E+01   1.558693E+01   1.561378E+01   1.584141E+01   1.627293E+01
   5.514573E+01   5.450646E+01   5.378193E+01   5.298918E+01   5.214417E+01   5.126049E+01   5.034824E+01   4.941349E+01   4.845821E+01   4.748080E+01   4.647725E+01   4.544264E+01   4.437299E+01   4.326705E+01   4.212789E+01   4.096405E+01   3.979011E+01   3.862640E+01   3.749807E+01   3.643345E+01   3.546184E+01   3.461108E+01   3.390510E+01   3.336169E+01   3.299090E+01   3.279415E+01   3.276416E+01   3.288581E+01   3.313776E+01   3.349471E+01   3.392988E+01   3.441765E+01   3.493578E+01   3.546714E+01   3.600056E+01   3.653079E+01   3.705761E+01   3.758403E+01   3.811398E+01   3.864972E+01   3.918938E+01   3.972484E+01   4.024051E+01   4.071296E+01   4.111181E+01   4.140159E+01   4.154461E+01   4.150448E+01   4.124995E+01   4.075853E+01   4.001966E+01   3.903678E+01   3.782830E+01   3.642698E+01   3.487803E+01   3.323581E+01   3.155955E+01   2.990857E+01   2.833730E+01   2.689081E+01   2.560121E+01   2.448529E+01   2.354380E+01   2.276230E+01   2.211357E+01   2.156135E+01   2.106495E+01   2.058428E+01   2.008477E+01   1.954159E+01   1.894278E+01   1.829093E+01   1.760316E+01   1.690957E+01   1.625020E+01   1.567077E+01   1.521793E+01   1.493419E+01   1.485339E+01   1.499690E+01   1.537118E+01
   5.617606E+01   5.548729E+01   5.467801E+01   5.377393E+01   5.280102E+01   5.178350E+01   5.074224E+01   4.969357E+01   4.864875E+01   4.761415E+01   4.659205E+01   4.558203E+01   4.458261E+01   4.359314E+01   4.261534E+01   4.165464E+01   4.072076E+01   3.982772E+01   3.899300E+01   3.823619E+01   3.757703E+01   3.703327E+01   3.661861E+01   3.634084E+01   3.620069E+01   3.619133E+01   3.629882E+01   3.650336E+01   3.678123E+01   3.710728E+01   3.745759E+01   3.781201E+01   3.815624E+01   3.848314E+01   3.879310E+01   3.909340E+01   3.939651E+01   3.971763E+01   4.007159E+01   4.046964E+01   4.091640E+01   4.140742E+01   4.192779E+01   4.245176E+01   4.294389E+01   4.336136E+01   4.365737E+01   4.378533E+01   4.370345E+01   4.337905E+01   4.279234E+01   4.193909E+01   4.083192E+01   3.949995E+01   3.798685E+01   3.634753E+01   3.464350E+01   3.293776E+01   3.128937E+01   2.974848E+01   2.835232E+01   2.712246E+01   2.606374E+01   2.516498E+01   2.440129E+01   2.373784E+01   2.313458E+01   2.255151E+01   2.195377E+01   2.131614E+01   2.062637E+01   1.988704E+01   1.911564E+01   1.834305E+01   1.761041E+01   1.696482E+01   1.645431E+01   1.612265E+01   1.600453E+01   1.612161E+01   1.647989E+01
   5.601290E+01   5.511092E+01   5.407091E+01   5.293021E+01   5.172720E+01   5.049852E+01   4.927678E+01   4.808871E+01   4.695409E+01   4.588560E+01   4.488937E+01   4.396631E+01   4.311395E+01   4.232841E+01   4.160638E+01   4.094674E+01   4.035157E+01   3.982655E+01   3.938045E+01   3.902407E+01   3.876857E+01   3.862353E+01   3.859501E+01   3.868385E+01   3.888458E+01   3.918507E+01   3.956700E+01   4.000719E+01   4.047966E+01   4.095816E+01   4.141888E+01   4.184300E+01   4.221879E+01   4.254281E+01   4.282021E+01   4.306384E+01   4.329242E+01   4.352769E+01   4.379115E+01   4.410038E+01   4.446584E+01   4.488804E+01   4.535595E+01   4.584650E+01   4.632558E+01   4.675033E+01   4.707263E+01   4.724343E+01   4.721746E+01   4.695784E+01   4.644011E+01   4.565518E+01   4.461085E+01   4.333180E+01   4.185783E+01   4.024066E+01   3.853959E+01   3.681628E+01   3.512952E+01   3.353015E+01   3.205702E+01   3.073416E+01   2.956957E+01   2.855578E+01   2.767197E+01   2.688753E+01   2.616664E+01   2.547330E+01   2.477625E+01   2.405327E+01   2.329442E+01   2.250369E+01   2.169911E+01   2.091108E+01   2.017929E+01   1.954845E+01   1.906336E+01   1.876384E+01   1.868009E+01   1.882893E+01   1.921142E+01
   5.526318E+01   5.402500E+01   5.264651E+01   5.117880E+01   4.967443E+01   4.818390E+01   4.675235E+01   4.541703E+01   4.420564E+01   4.313566E+01   4.221479E+01   4.144228E+01   4.081092E+01   4.030952E+01   3.992540E+01   3.964658E+01   3.946359E+01   3.937042E+01   3.936469E+01   3.944707E+01   3.961999E+01   3.988596E+01   4.024570E+01   4.069643E+01   4.123067E+01   4.183553E+01   4.249302E+01   4.318096E+01   4.387477E+01   4.454967E+01   4.518321E+01   4.575764E+01   4.626191E+01   4.669288E+01   4.705571E+01   4.736309E+01   4.763356E+01   4.788889E+01   4.815096E+01   4.843829E+01   4.876289E+01   4.912759E+01   4.952432E+01   4.993362E+01   5.032541E+01   5.066113E+01   5.089695E+01   5.098780E+01   5.089185E+01   5.057482E+01   5.001387E+01   4.920036E+01   4.814136E+01   4.685966E+01   4.539220E+01   4.378704E+01   4.209934E+01   4.038655E+01   3.870342E+01   3.709742E+01   3.560492E+01   3.424866E+01   3.303669E+01   3.196293E+01   3.100929E+01   3.014901E+01   2.935094E+01   2.858418E+01   2.782262E+01   2.704879E+01   2.625660E+01   2.545271E+01   2.465626E+01   2.389705E+01   2.321240E+01   2.264292E+01   2.222778E+01   2.199995E+01   2.198193E+01   2.218249E+01   2.259476E+01
   5.448018E+01   5.290179E+01   5.118579E+01   4.939657E+01   4.760072E+01   4.586254E+01   4.423981E+01   4.278044E+01   4.152000E+01   4.048057E+01   3.967083E+01   3.908730E+01   3.871652E+01   3.853789E+01   3.852677E+01   3.865749E+01   3.890591E+01   3.925129E+01   3.967735E+01   4.017240E+01   4.072871E+01   4.134127E+01   4.200615E+01   4.271885E+01   4.347285E+01   4.425867E+01   4.506349E+01   4.587158E+01   4.666533E+01   4.742684E+01   4.813977E+01   4.879123E+01   4.937339E+01   4.988453E+01   5.032932E+01   5.071827E+01   5.106635E+01   5.139077E+01   5.170842E+01   5.203299E+01   5.237230E+01   5.272616E+01   5.308504E+01   5.342978E+01   5.373248E+01   5.395853E+01   5.406950E+01   5.402688E+01   5.379597E+01   5.334968E+01   5.267182E+01   5.175939E+01   5.062362E+01   4.928970E+01   4.779506E+01   4.618641E+01   4.451589E+01   4.283656E+01   4.119796E+01   3.964197E+01   3.819955E+01   3.688872E+01   3.571391E+01   3.466685E+01   3.372877E+01   3.287380E+01   3.207301E+01   3.129879E+01   3.052890E+01   2.974986E+01   2.895917E+01   2.816619E+01   2.739145E+01   2.666455E+01   2.602081E+01   2.549715E+01   2.512742E+01   2.493798E+01   2.494386E+01   2.514600E+01   2.552989E+01
   5.376179E+01   5.200333E+01   5.010187E+01   4.813087E+01   4.616741E+01   4.428695E+01   4.255829E+01   4.103934E+01   3.977390E+01   3.878977E+01   3.809833E+01   3.769543E+01   3.756349E+01   3.767445E+01   3.799327E+01   3.848150E+01   3.910062E+01   3.981478E+01   4.059280E+01   4.140925E+01   4.224467E+01   4.308505E+01   4.392073E+01   4.474506E+01   4.555299E+01   4.633991E+01   4.710089E+01   4.783036E+01   4.852241E+01   4.917144E+01   4.977307E+01   5.032517E+01   5.082869E+01   5.128811E+01   5.171137E+01   5.210923E+01   5.249390E+01   5.287736E+01   5.326923E+01   5.367469E+01   5.409262E+01   5.451424E+01   5.492264E+01   5.529304E+01   5.559423E+01   5.579080E+01   5.584615E+01   5.572591E+01   5.540149E+01   5.485335E+01   5.407351E+01   5.306720E+01   5.185318E+01   5.046289E+01   4.893819E+01   4.732819E+01   4.568525E+01   4.406062E+01   4.250021E+01   4.104092E+01   3.970789E+01   3.851301E+01   3.745480E+01   3.651976E+01   3.568493E+01   3.492142E+01   3.419864E+01   3.348839E+01   3.276883E+01   3.202744E+01   3.126294E+01   3.048568E+01   2.971669E+01   2.898526E+01   2.832550E+01   2.777204E+01   2.735563E+01   2.709883E+01   2.701249E+01   2.709339E+01   2.732323E+01
   5.272816E+01   5.109944E+01   4.930531E+01   4.742001E+01   4.552368E+01   4.369687E+01   4.201501E+01   4.054353E+01   3.933398E+01   3.842138E+01   3.782309E+01   3.753902E+01   3.755330E+01   3.783680E+01   3.835059E+01   3.904959E+01   3.988624E+01   4.081385E+01   4.178930E+01   4.277496E+01   4.373991E+01   4.466027E+01   4.551895E+01   4.630501E+01   4.701270E+01   4.764049E+01   4.819022E+01   4.866651E+01   4.907632E+01   4.942881E+01   4.973530E+01   5.000917E+01   5.026563E+01   5.052126E+01   5.079307E+01   5.109732E+01   5.144790E+01   5.185459E+01   5.232132E+01   5.284459E+01   5.341243E+01   5.400399E+01   5.458998E+01   5.513401E+01   5.559481E+01   5.592916E+01   5.609542E+01   5.605713E+01   5.578655E+01   5.526758E+01   5.449785E+01   5.348967E+01   5.226966E+01   5.087712E+01   4.936112E+01   4.777671E+01   4.618048E+01   4.462598E+01   4.315944E+01   4.181614E+01   4.061795E+01   3.957222E+01   3.867203E+01   3.789801E+01   3.722126E+01   3.660725E+01   3.602018E+01   3.542736E+01   3.480307E+01   3.413157E+01   3.340888E+01   3.264308E+01   3.185323E+01   3.106690E+01   3.031666E+01   2.963592E+01   2.905453E+01   2.859468E+01   2.826757E+01   2.807115E+01   2.798935E+01
   5.085728E+01   4.973846E+01   4.841553E+01   4.695245E+01   4.542198E+01   4.390047E+01   4.246250E+01   4.117580E+01   4.009705E+01   3.926866E+01   3.871684E+01   3.845105E+01   3.846467E+01   3.873677E+01   3.923478E+01   3.991754E+01   4.073872E+01   4.165002E+01   4.260414E+01   4.355715E+01   4.447041E+01   4.531178E+01   4.605633E+01   4.668666E+01   4.719283E+01   4.757209E+01   4.782858E+01   4.797279E+01   4.802111E+01   4.799522E+01   4.792128E+01   4.782897E+01   4.775009E+01   4.771697E+01   4.776046E+01   4.790768E+01   4.817974E+01   4.858944E+01   4.913937E+01   4.982050E+01   5.061160E+01   5.147956E+01   5.238077E+01   5.326345E+01   5.407100E+01   5.474599E+01   5.523444E+01   5.549021E+01   5.547894E+01   5.518114E+01   5.459421E+01   5.373305E+01   5.262922E+01   5.132860E+01   4.988786E+01   4.836988E+01   4.683874E+01   4.535449E+01   4.396847E+01   4.271944E+01   4.163094E+01   4.071020E+01   3.994849E+01   3.932313E+01   3.880067E+01   3.834105E+01   3.790226E+01   3.744489E+01   3.693633E+01   3.635395E+01   3.568711E+01   3.493766E+01   3.411906E+01   3.325424E+01   3.237223E+01   3.150434E+01   3.067994E+01   2.992266E+01   2.924710E+01   2.865674E+01   2.814304E+01
   4.791864E+01   4.763837E+01   4.711053E+01   4.637783E+01   4.549445E+01   4.452174E+01   4.352375E+01   4.256270E+01   4.169491E+01   4.096748E+01   4.041582E+01   4.006235E+01   3.991602E+01   3.997292E+01   4.021761E+01   4.062498E+01   4.116253E+01   4.179277E+01   4.247556E+01   4.317041E+01   4.383850E+01   4.444440E+01   4.495767E+01   4.535411E+01   4.561684E+01   4.573720E+01   4.571536E+01   4.556070E+01   4.529184E+01   4.493618E+01   4.452901E+01   4.411195E+01   4.373086E+01   4.343312E+01   4.326452E+01   4.326587E+01   4.346952E+01   4.389619E+01   4.455239E+01   4.542864E+01   4.649879E+01   4.772072E+01   4.903820E+01   5.038420E+01   5.168512E+01   5.286591E+01   5.385545E+01   5.459196E+01   5.502769E+01   5.513276E+01   5.489749E+01   5.433316E+01   5.347110E+01   5.235998E+01   5.106182E+01   4.964682E+01   4.818762E+01   4.675344E+01   4.540471E+01   4.418865E+01   4.313612E+01   4.226007E+01   4.155579E+01   4.100256E+01   4.056691E+01   4.020672E+01   3.987601E+01   3.952974E+01   3.912818E+01   3.864046E+01   3.804696E+01   3.734027E+01   3.652485E+01   3.561531E+01   3.463377E+01   3.360644E+01   3.256001E+01   3.151818E+01   3.049872E+01   2.951143E+01   2.855721E+01
   4.420537E+01   4.492113E+01   4.535893E+01   4.553291E+01   4.546993E+01   4.520692E+01   4.478783E+01   4.426038E+01   4.367281E+01   4.307109E+01   4.249642E+01   4.198336E+01   4.155860E+01   4.124014E+01   4.103713E+01   4.095006E+01   4.097131E+01   4.108599E+01   4.127301E+01   4.150642E+01   4.175684E+01   4.199321E+01   4.218468E+01   4.230262E+01   4.232283E+01   4.222760E+01   4.200778E+01   4.166434E+01   4.120963E+01   4.066768E+01   4.007389E+01   3.947359E+01   3.891969E+01   3.846940E+01   3.818021E+01   3.810543E+01   3.828958E+01   3.876403E+01   3.954339E+01   4.062290E+01   4.197721E+01   4.356080E+01   4.530997E+01   4.714651E+01   4.898258E+01   5.072673E+01   5.229028E+01   5.359372E+01   5.457248E+01   5.518166E+01   5.539910E+01   5.522673E+01   5.468995E+01   5.383509E+01   5.272521E+01   5.143475E+01   5.004321E+01   4.862883E+01   4.726255E+01   4.600284E+01   4.489196E+01   4.395376E+01   4.319328E+01   4.259799E+01   4.214051E+01   4.178254E+01   4.147934E+01   4.118449E+01   4.085439E+01   4.045195E+01   3.994930E+01   3.932934E+01   3.858588E+01   3.772272E+01   3.675166E+01   3.569000E+01   3.455758E+01   3.337401E+01   3.215632E+01   3.091721E+01   2.966422E+01