# Name file for MT3DMS, generated by Flopy version 3.3.0.
LIST              16  case1a_mt.list
FTL               10  mt3d_link.ftl 
BTN               31  case1a_mt.btn
ADV               32  case1a_mt.adv
DSP               33  case1a_mt.dsp
RCT               36  case1a_mt.rct
SSM               34  case1a_mt.ssm
GCG               35  case1a_mt.gcg
