## BTN for MT3DMS, generated by Flopy.
##
         1        41        81        50         2         2
D   M   KG  
T T T T T 
 0
         0     31.25                           -1 #delr
         0     31.25                           -1 #delc
         0         0                           -1 #htop
         0        50                           -1 #dz layer 1
         0       0.3                           -1 #prsity layer 1
         0         1                           -1 #icbund layer 1
         0         0                           -1 #sconc1 layer 1
         0         0                           -1 #sconc2 layer 1
     1E+30  1.00E-02
         0         0         0         0         T
        -1
        20         1
         1        32        50
         1        19        57
         1        21        49
         1        28        77
         1        25        61
         1        13        32
         1        20        70
         1        31        33
         1        34        39
         1        19        66
         1        23        75
         1        22        39
         1        35        56
         1        18        45
         1         6        67
         1        31        60
         1         9        53
         1        22        61
         1        12        41
         1        32        41
         T         1
       730         1         1
         0     50000         1         0
       730         1         1
         0     50000         1         0
       730         1         1
         0     50000         1         0
       730         1         1
         0     50000         1         0
       730         1         1
         0     50000         1         0
       730         1         1
         0     50000         1         0
       730         1         1
         0     50000         1         0
       730         1         1
         0     50000         1         0
       730         1         1
         0     50000         1         0
       730         1         1
         0     50000         1         0
     182.5         1         1
         0     50000         1         0
     182.5         1         1
         0     50000         1         0
     182.5         1         1
         0     50000         1         0
     182.5         1         1
         0     50000         1         0
     182.5         1         1
         0     50000         1         0
     182.5         1         1
         0     50000         1         0
     182.5         1         1
         0     50000         1         0
     182.5         1         1
         0     50000         1         0
     182.5         1         1
         0     50000         1         0
     182.5         1         1
         0     50000         1         0
     182.5         1         1
         0     50000         1         0
     182.5         1         1
         0     50000         1         0
     182.5         1         1
         0     50000         1         0
     182.5         1         1
         0     50000         1         0
     182.5         1         1
         0     50000         1         0
     182.5         1         1
         0     50000         1         0
     182.5         1         1
         0     50000         1         0
     182.5         1         1
         0     50000         1         0
     182.5         1         1
         0     50000         1         0
     182.5         1         1
         0     50000         1         0
     182.5         1         1
         0     50000         1         0
     182.5         1         1
         0     50000         1         0
     182.5         1         1
         0     50000         1         0
     182.5         1         1
         0     50000         1         0
     182.5         1         1
         0     50000         1         0
     182.5         1         1
         0     50000         1         0
     182.5         1         1
         0     50000         1         0
     182.5         1         1
         0     50000         1         0
     182.5         1         1
         0     50000         1         0
     182.5         1         1
         0     50000         1         0
     182.5         1         1
         0     50000         1         0
     182.5         1         1
         0     50000         1         0
     182.5         1         1
         0     50000         1         0
     182.5         1         1
         0     50000         1         0
     182.5         1         1
         0     50000         1         0
     182.5         1         1
         0     50000         1         0
     182.5         1         1
         0     50000         1         0
     182.5         1         1
         0     50000         1         0
     182.5         1         1
         0     50000         1         0
     182.5         1         1
         0     50000         1         0
