## BTN for MT3DMS, generated by Flopy.
##
         1        41        81        50         1         1
D   M   KG  
T T T T T 
 0
         0     31.25                           -1 #delr
         0     31.25                           -1 #delc
         0         0                           -1 #htop
         0        50                           -1 #dz layer 1
         0       0.3                           -1 #prsity layer 1
         0         1                           -1 #icbund layer 1
         0         0                           -1 #sconc1 layer 1
     1E+30  1.00E-02
         0         0         0         0         T
        -1
        20         1
         1        32        40
         1        19        47
         1        21        39
         1        28        67
         1        25        51
         1        13        22
         1        20        60
         1        31        23
         1        34        29
         1        19        56
         1        23        65
         1        22        29
         1        35        46
         1        18        35
         1         6        57
         1        31        50
         1         9        43
         1        22        51
         1        12        31
         1        32        31
         T         1
       730         1         1
         0     50000         1         0
       730         1         1
         0     50000         1         0
       730         1         1
         0     50000         1         0
       730         1         1
         0     50000         1         0
       730         1         1
         0     50000         1         0
       730         1         1
         0     50000         1         0
       730         1         1
         0     50000         1         0
       730         1         1
         0     50000         1         0
       730         1         1
         0     50000         1         0
       730         1         1
         0     50000         1         0
     182.5         1         1
         0     50000         1         0
     182.5         1         1
         0     50000         1         0
     182.5         1         1
         0     50000         1         0
     182.5         1         1
         0     50000         1         0
     182.5         1         1
         0     50000         1         0
     182.5         1         1
         0     50000         1         0
     182.5         1         1
         0     50000         1         0
     182.5         1         1
         0     50000         1         0
     182.5         1         1
         0     50000         1         0
     182.5         1         1
         0     50000         1         0
     182.5         1         1
         0     50000         1         0
     182.5         1         1
         0     50000         1         0
     182.5         1         1
         0     50000         1         0
     182.5         1         1
         0     50000         1         0
     182.5         1         1
         0     50000         1         0
     182.5         1         1
         0     50000         1         0
     182.5         1         1
         0     50000         1         0
     182.5         1         1
         0     50000         1         0
     182.5         1         1
         0     50000         1         0
     182.5         1         1
         0     50000         1         0
     182.5         1         1
         0     50000         1         0
     182.5         1         1
         0     50000         1         0
     182.5         1         1
         0     50000         1         0
     182.5         1         1
         0     50000         1         0
     182.5         1         1
         0     50000         1         0
     182.5         1         1
         0     50000         1         0
     182.5         1         1
         0     50000         1         0
     182.5         1         1
         0     50000         1         0
     182.5         1         1
         0     50000         1         0
     182.5         1         1
         0     50000         1         0
     182.5         1         1
         0     50000         1         0
     182.5         1         1
         0     50000         1         0
     182.5         1         1
         0     50000         1         0
     182.5         1         1
         0     50000         1         0
     182.5         1         1
         0     50000         1         0
     182.5         1         1
         0     50000         1         0
     182.5         1         1
         0     50000         1         0
     182.5         1         1
         0     50000         1         0
     182.5         1         1
         0     50000         1         0
     182.5         1         1
         0     50000         1         0
