# Name file for MT3DMS, generated by Flopy version 3.3.0.
LIST              16  freundlich_mt.list
FTL               10  mt3d_link.ftl 
BTN               31  freundlich_mt.btn
ADV               32  freundlich_mt.adv
DSP               33  freundlich_mt.dsp
RCT               36  freundlich_mt.rct
SSM               34  freundlich_mt.ssm
GCG               35  freundlich_mt.gcg
