# Name file for MODFLOW-2005, generated by Flopy version 3.3.0.
#xll:0.0; yll:0.0; rotation:0.0; units:meters; lenuni:2; start_datetime:1-1-1970
LIST               2  freundlich_mf.list
DIS               11  freundlich_mf.dis
BAS6              13  freundlich_mf.bas
LPF               15  freundlich_mf.lpf
PCG               27  freundlich_mf.pcg
LMT6              30  freundlich_mf.lmt6
