# DIS package for  MODFLOW-2005, generated by Flopy.
         1         1       101         1         4         2
  0
CONSTANT    1.600000E-01                           #delr                          
CONSTANT    1.000000E+00                           #delc                          
CONSTANT    0.000000E+00                           #model_top                     
CONSTANT   -1.000000E+00                           #botm layer 1                  
      1.000000             1  1.000000  SS 
